Version 4
SHEET 1 960 808
WIRE -3152 -1648 -3184 -1648
WIRE -3184 -1616 -3184 -1648
WIRE -3280 -1600 -3328 -1600
WIRE -3008 -1584 -3024 -1584
WIRE -2928 -1584 -2944 -1584
WIRE -2624 -1584 -2640 -1584
WIRE -3280 -1552 -3328 -1552
WIRE -2640 -1552 -2640 -1584
WIRE -3024 -1536 -3024 -1584
WIRE -3024 -1536 -3072 -1536
WIRE -2928 -1536 -2928 -1584
WIRE -2896 -1536 -2928 -1536
WIRE -2800 -1536 -2816 -1536
WIRE -2672 -1536 -2800 -1536
WIRE -4656 -1520 -4784 -1520
WIRE -4464 -1520 -4592 -1520
WIRE -3280 -1520 -3296 -1520
WIRE -2800 -1520 -2800 -1536
WIRE -2528 -1520 -2608 -1520
WIRE -2496 -1520 -2528 -1520
WIRE -4208 -1504 -4336 -1504
WIRE -4016 -1504 -4144 -1504
WIRE -3296 -1504 -3296 -1520
WIRE -2672 -1504 -2688 -1504
WIRE -3024 -1488 -3024 -1536
WIRE -3008 -1488 -3024 -1488
WIRE -2928 -1488 -2928 -1536
WIRE -2928 -1488 -2944 -1488
WIRE -4560 -1472 -4576 -1472
WIRE -4112 -1456 -4128 -1456
WIRE -2640 -1456 -2640 -1488
WIRE -2624 -1456 -2640 -1456
WIRE -4576 -1440 -4576 -1472
WIRE -3184 -1440 -3184 -1456
WIRE -3152 -1440 -3184 -1440
WIRE -4880 -1424 -4896 -1424
WIRE -4784 -1424 -4784 -1520
WIRE -4784 -1424 -4800 -1424
WIRE -4768 -1424 -4784 -1424
WIRE -4672 -1424 -4688 -1424
WIRE -4608 -1424 -4672 -1424
WIRE -4128 -1424 -4128 -1456
WIRE -2800 -1424 -2800 -1440
WIRE -4672 -1408 -4672 -1424
WIRE -4464 -1408 -4464 -1520
WIRE -4464 -1408 -4544 -1408
WIRE -4432 -1408 -4464 -1408
WIRE -4336 -1408 -4336 -1504
WIRE -4336 -1408 -4352 -1408
WIRE -4320 -1408 -4336 -1408
WIRE -4224 -1408 -4240 -1408
WIRE -4160 -1408 -4224 -1408
WIRE -4608 -1392 -4624 -1392
WIRE -4224 -1392 -4224 -1408
WIRE -4016 -1392 -4016 -1504
WIRE -4016 -1392 -4096 -1392
WIRE -4000 -1392 -4016 -1392
WIRE -3392 -1392 -3408 -1392
WIRE -3280 -1392 -3280 -1472
WIRE -3280 -1392 -3312 -1392
WIRE -3216 -1392 -3280 -1392
WIRE -3072 -1392 -3072 -1536
WIRE -3072 -1392 -3136 -1392
WIRE -2688 -1392 -2688 -1504
WIRE -2640 -1392 -2688 -1392
WIRE -2528 -1392 -2528 -1520
WIRE -2528 -1392 -2560 -1392
WIRE -4160 -1376 -4176 -1376
WIRE -3408 -1376 -3408 -1392
WIRE -4576 -1344 -4576 -1376
WIRE -4560 -1344 -4576 -1344
WIRE -4672 -1328 -4672 -1344
WIRE -4128 -1328 -4128 -1360
WIRE -4112 -1328 -4128 -1328
WIRE -4624 -1312 -4624 -1392
WIRE -4464 -1312 -4464 -1408
WIRE -4464 -1312 -4624 -1312
WIRE -4224 -1312 -4224 -1328
WIRE -4176 -1296 -4176 -1376
WIRE -4016 -1296 -4016 -1392
WIRE -4016 -1296 -4176 -1296
WIRE -4656 -1248 -4784 -1248
WIRE -4464 -1248 -4592 -1248
WIRE -4208 -1232 -4336 -1232
WIRE -4016 -1232 -4144 -1232
WIRE -4560 -1200 -4576 -1200
WIRE -3200 -1200 -3456 -1200
WIRE -4112 -1184 -4128 -1184
WIRE -4576 -1168 -4576 -1200
WIRE -3200 -1168 -3200 -1200
WIRE -4880 -1152 -4896 -1152
WIRE -4784 -1152 -4784 -1248
WIRE -4784 -1152 -4800 -1152
WIRE -4768 -1152 -4784 -1152
WIRE -4672 -1152 -4688 -1152
WIRE -4608 -1152 -4672 -1152
WIRE -4128 -1152 -4128 -1184
WIRE -4672 -1136 -4672 -1152
WIRE -4464 -1136 -4464 -1248
WIRE -4464 -1136 -4544 -1136
WIRE -4432 -1136 -4464 -1136
WIRE -4336 -1136 -4336 -1232
WIRE -4336 -1136 -4352 -1136
WIRE -4320 -1136 -4336 -1136
WIRE -4224 -1136 -4240 -1136
WIRE -4160 -1136 -4224 -1136
WIRE -4608 -1120 -4624 -1120
WIRE -4224 -1120 -4224 -1136
WIRE -4016 -1120 -4016 -1232
WIRE -4016 -1120 -4096 -1120
WIRE -4000 -1120 -4016 -1120
WIRE -4160 -1104 -4176 -1104
WIRE -3456 -1088 -3456 -1200
WIRE -4576 -1072 -4576 -1104
WIRE -4560 -1072 -4576 -1072
WIRE -4672 -1056 -4672 -1072
WIRE -4128 -1056 -4128 -1088
WIRE -4112 -1056 -4128 -1056
WIRE -3552 -1056 -3568 -1056
WIRE -2976 -1056 -3008 -1056
WIRE -4624 -1040 -4624 -1120
WIRE -4464 -1040 -4464 -1136
WIRE -4464 -1040 -4624 -1040
WIRE -4224 -1040 -4224 -1056
WIRE -3200 -1040 -3200 -1088
WIRE -3200 -1040 -3216 -1040
WIRE -3152 -1040 -3200 -1040
WIRE -4176 -1024 -4176 -1104
WIRE -4016 -1024 -4016 -1120
WIRE -4016 -1024 -4176 -1024
WIRE -3200 -1024 -3200 -1040
WIRE -3008 -1024 -3008 -1056
WIRE -3152 -1008 -3152 -1040
WIRE -3104 -1008 -3152 -1008
WIRE -2672 -992 -2688 -992
WIRE -3104 -960 -3152 -960
WIRE -2688 -960 -2688 -992
WIRE -2848 -944 -2896 -944
WIRE -2720 -944 -2768 -944
WIRE -3200 -928 -3200 -944
WIRE -3200 -928 -3216 -928
WIRE -3152 -928 -3152 -960
WIRE -3152 -928 -3200 -928
WIRE -3104 -928 -3120 -928
WIRE -2576 -928 -2656 -928
WIRE -2544 -928 -2576 -928
WIRE -3120 -912 -3120 -928
WIRE -2720 -912 -2736 -912
WIRE -3552 -896 -3552 -928
WIRE -3456 -880 -3456 -896
WIRE -3200 -880 -3200 -928
WIRE -3200 -880 -3456 -880
WIRE -2688 -864 -2688 -896
WIRE -2672 -864 -2688 -864
WIRE -3008 -848 -3008 -864
WIRE -2976 -848 -3008 -848
WIRE -3216 -800 -3232 -800
WIRE -3104 -800 -3104 -880
WIRE -3104 -800 -3136 -800
WIRE -3040 -800 -3104 -800
WIRE -2896 -800 -2896 -944
WIRE -2896 -800 -2960 -800
WIRE -2832 -800 -2848 -800
WIRE -2736 -800 -2736 -912
WIRE -2736 -800 -2752 -800
WIRE -2688 -800 -2736 -800
WIRE -2576 -800 -2576 -928
WIRE -2576 -800 -2608 -800
WIRE -3232 -784 -3232 -800
WIRE -2848 -784 -2848 -800
WIRE -5232 -720 -5248 -720
WIRE -5136 -720 -5152 -720
WIRE -5120 -720 -5136 -720
WIRE -4976 -720 -5040 -720
WIRE -5072 -656 -5088 -656
WIRE -5088 -624 -5088 -656
WIRE -5136 -608 -5136 -720
WIRE -5120 -608 -5136 -608
WIRE -4976 -592 -4976 -720
WIRE -4976 -592 -5056 -592
WIRE -4864 -592 -4976 -592
WIRE -4752 -592 -4784 -592
WIRE -4688 -592 -4752 -592
WIRE -5120 -576 -5344 -576
WIRE -4752 -576 -4752 -592
WIRE -5088 -528 -5088 -560
WIRE -5072 -528 -5088 -528
WIRE -4752 -496 -4752 -512
WIRE -5232 -448 -5248 -448
WIRE -5136 -448 -5152 -448
WIRE -5120 -448 -5136 -448
WIRE -4976 -448 -5040 -448
WIRE -4864 -432 -4928 -432
WIRE -4752 -432 -4784 -432
WIRE -4688 -432 -4752 -432
WIRE -4752 -416 -4752 -432
WIRE -5072 -384 -5088 -384
WIRE -5088 -352 -5088 -384
WIRE -5136 -336 -5136 -448
WIRE -5120 -336 -5136 -336
WIRE -4752 -336 -4752 -352
WIRE -4976 -320 -4976 -448
WIRE -4976 -320 -5056 -320
WIRE -4928 -320 -4928 -432
WIRE -4928 -320 -4976 -320
WIRE -5344 -304 -5344 -576
WIRE -5120 -304 -5344 -304
WIRE -5088 -256 -5088 -288
WIRE -5072 -256 -5088 -256
WIRE -4864 -240 -4896 -240
WIRE -4752 -240 -4784 -240
WIRE -4688 -240 -4752 -240
WIRE -4208 -240 -4256 -240
WIRE -4896 -224 -4896 -240
WIRE -4896 -224 -5024 -224
WIRE -4752 -224 -4752 -240
WIRE -5072 -208 -5088 -208
WIRE -5072 -176 -5072 -208
WIRE -5024 -160 -5024 -224
WIRE -5024 -160 -5040 -160
WIRE -5008 -160 -5024 -160
WIRE -5344 -144 -5344 -304
WIRE -5296 -144 -5344 -144
WIRE -5280 -144 -5296 -144
WIRE -5184 -144 -5200 -144
WIRE -5104 -144 -5184 -144
WIRE -4752 -144 -4752 -160
WIRE -5296 -128 -5296 -144
WIRE -5024 -128 -5040 -128
WIRE -5072 -80 -5072 -112
WIRE -5072 -80 -5088 -80
WIRE -3200 -64 -3216 -64
WIRE -5184 -48 -5184 -144
WIRE -5024 -48 -5024 -128
WIRE -5024 -48 -5184 -48
WIRE -5296 -32 -5296 -48
WIRE -3216 -16 -3216 -64
WIRE -4224 16 -4256 16
WIRE -4096 16 -4160 16
WIRE -3072 16 -3072 0
WIRE -3072 16 -3136 16
WIRE -3312 32 -3344 32
WIRE -4496 48 -4512 48
WIRE -3744 48 -3760 48
WIRE -3632 48 -3664 48
WIRE -3584 48 -3632 48
WIRE -3472 48 -3504 48
WIRE -4512 80 -4512 48
WIRE -4736 96 -4752 96
WIRE -4640 96 -4656 96
WIRE -4544 96 -4640 96
WIRE -3408 96 -3440 96
WIRE -3312 96 -3328 96
WIRE -4640 112 -4640 96
WIRE -4400 112 -4480 112
WIRE -4384 112 -4400 112
WIRE -4256 112 -4256 16
WIRE -4256 112 -4304 112
WIRE -4224 112 -4256 112
WIRE -4096 112 -4096 16
WIRE -4096 112 -4144 112
WIRE -3568 112 -3584 112
WIRE -4544 128 -4560 128
WIRE -4096 128 -4096 112
WIRE -3584 144 -3584 112
WIRE -3632 160 -3632 48
WIRE -3616 160 -3632 160
WIRE -3104 160 -3136 160
WIRE -4512 176 -4512 144
WIRE -4496 176 -4512 176
WIRE -3472 176 -3472 48
WIRE -3472 176 -3552 176
WIRE -3440 176 -3440 96
WIRE -3440 176 -3472 176
WIRE -3008 176 -3008 0
WIRE -2976 176 -3008 176
WIRE -4192 192 -4208 192
WIRE -3616 192 -3632 192
WIRE -4640 208 -4640 192
WIRE -4208 224 -4208 192
WIRE -3632 224 -3632 192
WIRE -4256 240 -4256 112
WIRE -4240 240 -4256 240
WIRE -3584 240 -3584 208
WIRE -3568 240 -3584 240
WIRE -3216 240 -3216 192
WIRE -3200 240 -3216 240
WIRE -2976 240 -3008 240
WIRE -4096 256 -4176 256
WIRE -4064 256 -4096 256
WIRE -3760 256 -3760 48
WIRE -3760 256 -3776 256
WIRE -4672 272 -4704 272
WIRE -4560 272 -4560 128
WIRE -4560 272 -4592 272
WIRE -4512 272 -4560 272
WIRE -4400 272 -4400 112
WIRE -4400 272 -4432 272
WIRE -4240 272 -4256 272
WIRE -3200 272 -3216 272
WIRE -4704 288 -4704 272
WIRE -3568 288 -3584 288
WIRE -4208 320 -4208 288
WIRE -4192 320 -4208 320
WIRE -3584 320 -3584 288
WIRE -3216 320 -3216 272
WIRE -4496 336 -4512 336
WIRE -3760 336 -3760 256
WIRE -3616 336 -3760 336
WIRE -3472 352 -3552 352
WIRE -3440 352 -3472 352
WIRE -3008 352 -3008 240
WIRE -3008 352 -3136 352
WIRE -4512 368 -4512 336
WIRE -3616 368 -3632 368
WIRE -3312 368 -3344 368
WIRE -4736 384 -4752 384
WIRE -4640 384 -4656 384
WIRE -4544 384 -4640 384
WIRE -4640 400 -4640 384
WIRE -4400 400 -4480 400
WIRE -4384 400 -4400 400
WIRE -4256 400 -4256 272
WIRE -4256 400 -4304 400
WIRE -4224 400 -4256 400
WIRE -4096 400 -4096 256
WIRE -4096 400 -4144 400
WIRE -4544 416 -4560 416
WIRE -3584 416 -3584 384
WIRE -3568 416 -3584 416
WIRE -3440 432 -3440 352
WIRE -3408 432 -3440 432
WIRE -3312 432 -3328 432
WIRE -4512 464 -4512 432
WIRE -4496 464 -4512 464
WIRE -3632 480 -3632 368
WIRE -3584 480 -3632 480
WIRE -3472 480 -3472 352
WIRE -3472 480 -3504 480
WIRE -4640 496 -4640 480
WIRE -4256 496 -4256 400
WIRE -4224 496 -4256 496
WIRE -4096 496 -4096 400
WIRE -4096 496 -4160 496
WIRE -3104 496 -3136 496
WIRE -4672 560 -4704 560
WIRE -4560 560 -4560 416
WIRE -4560 560 -4592 560
WIRE -4512 560 -4560 560
WIRE -4400 560 -4400 400
WIRE -4400 560 -4432 560
WIRE -4704 576 -4704 560
WIRE -3216 576 -3216 528
WIRE -3200 576 -3216 576
FLAG -4672 -1328 0
FLAG -4560 -1344 Vcc+
IOPIN -4560 -1344 In
FLAG -4560 -1472 Vcc-
IOPIN -4560 -1472 In
FLAG -4224 -1312 0
FLAG -4112 -1328 Vcc+
IOPIN -4112 -1328 In
FLAG -4112 -1456 Vcc-
IOPIN -4112 -1456 In
FLAG -5072 -656 Vcc+
IOPIN -5072 -656 In
FLAG -5072 -528 Vcc-
IOPIN -5072 -528 In
FLAG -4672 -1056 0
FLAG -4560 -1072 Vcc+
IOPIN -4560 -1072 In
FLAG -4560 -1200 Vcc-
IOPIN -4560 -1200 In
FLAG -4224 -1040 0
FLAG -4112 -1056 Vcc+
IOPIN -4112 -1056 In
FLAG -4112 -1184 Vcc-
IOPIN -4112 -1184 In
FLAG -5072 -384 Vcc+
IOPIN -5072 -384 In
FLAG -5072 -256 Vcc-
IOPIN -5072 -256 In
FLAG -5088 -80 Vcc+
IOPIN -5088 -80 In
FLAG -5088 -208 Vcc-
IOPIN -5088 -208 In
FLAG -5296 -32 0
FLAG -4208 -240 ADC_Ref
IOPIN -4208 -240 In
FLAG -4496 176 Vcc+
IOPIN -4496 176 In
FLAG -4496 48 Vcc-
IOPIN -4496 48 In
FLAG -4640 208 0
FLAG -4496 464 Vcc+
IOPIN -4496 464 In
FLAG -4496 336 Vcc-
IOPIN -4496 336 In
FLAG -4640 496 0
FLAG -4192 192 Vcc+
IOPIN -4192 192 In
FLAG -4192 320 Vcc-
IOPIN -4192 320 In
FLAG -4096 128 0
FLAG -4752 96 TChirpNeg
IOPIN -4752 96 In
FLAG -4752 384 TChirpPos
IOPIN -4752 384 In
FLAG -4704 576 0
FLAG -4704 288 0
FLAG -3568 416 Vcc+
IOPIN -3568 416 In
FLAG -3568 288 Vcc-
IOPIN -3568 288 In
FLAG -3568 112 Vcc+
IOPIN -3568 112 In
FLAG -3568 240 Vcc-
IOPIN -3568 240 In
FLAG -3200 240 Vcc-
IOPIN -3200 240 In
FLAG -3200 -64 Vcc+
IOPIN -3200 -64 In
FLAG -3104 240 0
FLAG -3200 576 Vcc-
IOPIN -3200 576 In
FLAG -3200 272 Vcc+
IOPIN -3200 272 In
FLAG -3104 576 0
FLAG -3344 32 Vcc-
IOPIN -3344 32 In
FLAG -3344 368 Vcc-
IOPIN -3344 368 In
FLAG -3120 -912 0
FLAG -3232 -784 0
FLAG -2672 -864 Vcc+
IOPIN -2672 -864 In
FLAG -2672 -992 Vcc-
IOPIN -2672 -992 In
FLAG -2848 -784 0
FLAG -2976 -848 Vcc-
IOPIN -2976 -848 In
FLAG -2976 -1056 Vcc+
IOPIN -2976 -1056 In
FLAG -3072 0 AmostragemI-
IOPIN -3072 0 In
FLAG -3008 0 AmostragemI+
IOPIN -3008 0 In
FLAG -3216 -928 AmostragemI-
IOPIN -3216 -928 In
FLAG -3216 -1040 AmostragemI+
IOPIN -3216 -1040 In
FLAG -3296 -1504 0
FLAG -3408 -1376 0
FLAG -2624 -1456 Vcc+
IOPIN -2624 -1456 In
FLAG -2624 -1584 Vcc-
IOPIN -2624 -1584 In
FLAG -3152 -1440 Vcc-
IOPIN -3152 -1440 In
FLAG -3152 -1648 Vcc+
IOPIN -3152 -1648 In
FLAG -3328 -1552 Tensão-
IOPIN -3328 -1552 In
FLAG -3328 -1600 Tensão+
IOPIN -3328 -1600 In
FLAG -2800 -1424 0
FLAG -2544 -928 Vi
IOPIN -2544 -928 In
FLAG -2496 -1520 Vv
IOPIN -2496 -1520 In
FLAG -2976 240 Corrente+
IOPIN -2976 240 In
FLAG -2976 176 Corrente+
IOPIN -2976 176 In
FLAG -4752 -496 0
FLAG -4752 -336 0
FLAG -4896 -1424 Vi
IOPIN -4896 -1424 In
FLAG -4896 -1152 Vv
IOPIN -4896 -1152 In
FLAG -4752 -144 0
FLAG -5008 -160 ADC_Ref
IOPIN -5008 -160 In
FLAG -4688 -592 A2
FLAG -4688 -432 A1
FLAG -4688 -240 A3
FLAG -3776 256 Vmodulação
IOPIN -3776 256 In
FLAG -4064 256 Vmodulação
IOPIN -4064 256 In
FLAG -5008 80 H5
FLAG -5040 400 G4
FLAG -4000 -1392 ViFilt
IOPIN -4000 -1392 In
FLAG -4000 -1120 VvFilt
IOPIN -4000 -1120 In
FLAG -5248 -720 ViFilt
IOPIN -5248 -720 In
FLAG -5248 -448 VvFilt
IOPIN -5248 -448 In
FLAG -3632 224 0
FLAG -3568 -1056 Vmodulação
IOPIN -3568 -1056 In
FLAG -3552 -896 0
SYMBOL Opamps\\opamp2 -4576 -1344 M180
SYMATTR InstName U1
SYMATTR Value LM7171
SYMBOL res -4784 -1440 R90
WINDOW 0 0 56 VBottom 2
WINDOW 3 32 56 VTop 2
SYMATTR InstName R1
SYMATTR Value 180
SYMBOL res -4672 -1440 R90
WINDOW 0 0 56 VBottom 2
WINDOW 3 32 56 VTop 2
SYMATTR InstName R2
SYMATTR Value 180
SYMBOL cap -4592 -1536 R90
WINDOW 0 0 32 VBottom 2
WINDOW 3 32 32 VTop 2
SYMATTR InstName C1
SYMATTR Value 82p
SYMBOL cap -4688 -1408 R0
SYMATTR InstName C2
SYMATTR Value 82p
SYMBOL Opamps\\opamp2 -4128 -1328 M180
SYMATTR InstName U2
SYMATTR Value LM7171
SYMBOL res -4336 -1424 R90
WINDOW 0 0 56 VBottom 2
WINDOW 3 32 56 VTop 2
SYMATTR InstName R3
SYMATTR Value 68
SYMBOL res -4224 -1424 R90
WINDOW 0 0 56 VBottom 2
WINDOW 3 32 56 VTop 2
SYMATTR InstName R4
SYMATTR Value 68
SYMBOL cap -4144 -1520 R90
WINDOW 0 0 32 VBottom 2
WINDOW 3 32 32 VTop 2
SYMATTR InstName C3
SYMATTR Value 560p
SYMBOL cap -4240 -1392 R0
SYMATTR InstName C4
SYMATTR Value 82p
SYMBOL Opamps\\opamp2 -5088 -656 R0
SYMATTR InstName U3
SYMATTR Value LM7171
SYMBOL res -5136 -704 M270
WINDOW 0 32 56 VTop 2
WINDOW 3 0 56 VBottom 2
SYMATTR InstName R5
SYMATTR Value 15k
SYMBOL res -5024 -704 M270
WINDOW 0 32 56 VTop 2
WINDOW 3 0 56 VBottom 2
SYMATTR InstName R6
SYMATTR Value 15k
SYMBOL Opamps\\opamp2 -4576 -1072 M180
SYMATTR InstName U4
SYMATTR Value LM7171
SYMBOL res -4784 -1168 R90
WINDOW 0 0 56 VBottom 2
WINDOW 3 32 56 VTop 2
SYMATTR InstName R7
SYMATTR Value 180
SYMBOL res -4672 -1168 R90
WINDOW 0 0 56 VBottom 2
WINDOW 3 32 56 VTop 2
SYMATTR InstName R8
SYMATTR Value 180
SYMBOL cap -4592 -1264 R90
WINDOW 0 0 32 VBottom 2
WINDOW 3 32 32 VTop 2
SYMATTR InstName C5
SYMATTR Value 82p
SYMBOL cap -4688 -1136 R0
SYMATTR InstName C6
SYMATTR Value 82p
SYMBOL Opamps\\opamp2 -4128 -1056 M180
SYMATTR InstName U5
SYMATTR Value LM7171
SYMBOL res -4336 -1152 R90
WINDOW 0 0 56 VBottom 2
WINDOW 3 32 56 VTop 2
SYMATTR InstName R9
SYMATTR Value 68
SYMBOL res -4224 -1152 R90
WINDOW 0 0 56 VBottom 2
WINDOW 3 32 56 VTop 2
SYMATTR InstName R10
SYMATTR Value 68
SYMBOL cap -4144 -1248 R90
WINDOW 0 0 32 VBottom 2
WINDOW 3 32 32 VTop 2
SYMATTR InstName C7
SYMATTR Value 560p
SYMBOL cap -4240 -1120 R0
SYMATTR InstName C8
SYMATTR Value 82p
SYMBOL Opamps\\opamp2 -5088 -384 R0
SYMATTR InstName U6
SYMATTR Value LM7171
SYMBOL res -5136 -432 M270
WINDOW 0 32 56 VTop 2
WINDOW 3 0 56 VBottom 2
SYMATTR InstName R11
SYMATTR Value 15k
SYMBOL res -5024 -432 M270
WINDOW 0 32 56 VTop 2
WINDOW 3 0 56 VBottom 2
SYMATTR InstName R12
SYMATTR Value 15k
SYMBOL Opamps\\opamp2 -5072 -80 R180
SYMATTR InstName U7
SYMATTR Value LM7171
SYMBOL res -5296 -160 M90
WINDOW 0 0 56 VBottom 2
WINDOW 3 32 56 VTop 2
SYMATTR InstName R13
SYMATTR Value 15k
SYMBOL res -5280 -32 R180
WINDOW 0 36 76 Left 2
WINDOW 3 36 40 Left 2
SYMATTR InstName R14
SYMATTR Value 15k
SYMBOL Opamps\\opamp2 -4512 176 M180
SYMATTR InstName U8
SYMATTR Value LM7171
SYMBOL res -4640 80 R90
WINDOW 0 0 56 VBottom 2
WINDOW 3 32 56 VTop 2
SYMATTR InstName R15
SYMATTR Value 15k
SYMBOL res -4656 208 M180
WINDOW 0 36 76 Left 2
WINDOW 3 36 40 Left 2
SYMATTR InstName R16
SYMATTR Value 2k7
SYMBOL res -4416 256 R90
WINDOW 0 0 56 VBottom 2
WINDOW 3 32 56 VTop 2
SYMATTR InstName R17
SYMATTR Value 15k
SYMBOL res -4688 288 R270
WINDOW 0 32 56 VTop 2
WINDOW 3 0 56 VBottom 2
SYMATTR InstName R18
SYMATTR Value 15k
SYMBOL res -4288 96 R90
WINDOW 0 0 56 VBottom 2
WINDOW 3 32 56 VTop 2
SYMATTR InstName R19
SYMATTR Value 15k
SYMBOL res -4128 96 R90
WINDOW 0 0 56 VBottom 2
WINDOW 3 32 56 VTop 2
SYMATTR InstName R20
SYMATTR Value 15k
SYMBOL cap -4160 0 R90
WINDOW 0 0 32 VBottom 2
WINDOW 3 32 32 VTop 2
SYMATTR InstName C9
SYMATTR Value 4.7p
SYMBOL Opamps\\opamp2 -4512 464 M180
SYMATTR InstName U9
SYMATTR Value LM7171
SYMBOL res -4640 368 R90
WINDOW 0 0 56 VBottom 2
WINDOW 3 32 56 VTop 2
SYMATTR InstName R21
SYMATTR Value 15k
SYMBOL res -4656 496 M180
WINDOW 0 36 76 Left 2
WINDOW 3 36 40 Left 2
SYMATTR InstName R22
SYMATTR Value 2k7
SYMBOL res -4416 544 R90
WINDOW 0 0 56 VBottom 2
WINDOW 3 32 56 VTop 2
SYMATTR InstName R23
SYMATTR Value 15k
SYMBOL res -4688 576 R270
WINDOW 0 32 56 VTop 2
WINDOW 3 0 56 VBottom 2
SYMATTR InstName R24
SYMATTR Value 15k
SYMBOL Opamps\\opamp2 -4208 192 R0
SYMATTR InstName U10
SYMATTR Value LM7171
SYMBOL res -4288 384 R90
WINDOW 0 0 56 VBottom 2
WINDOW 3 32 56 VTop 2
SYMATTR InstName R25
SYMATTR Value 15k
SYMBOL res -4128 384 R90
WINDOW 0 0 56 VBottom 2
WINDOW 3 32 56 VTop 2
SYMATTR InstName R26
SYMATTR Value 15k
SYMBOL cap -4160 480 R90
WINDOW 0 0 32 VBottom 2
WINDOW 3 32 32 VTop 2
SYMATTR InstName C10
SYMATTR Value 4.7p
SYMBOL Opamps\\opamp2 -3584 416 M180
SYMATTR InstName U11
SYMATTR Value LM7171
SYMBOL res -3488 464 R90
WINDOW 0 0 56 VBottom 2
WINDOW 3 32 56 VTop 2
SYMATTR InstName R29
SYMATTR Value 560
SYMBOL Opamps\\opamp2 -3584 112 R0
SYMATTR InstName U12
SYMATTR Value LM7171
SYMBOL res -3488 64 M270
WINDOW 0 32 56 VTop 2
WINDOW 3 0 56 VBottom 2
SYMATTR InstName R27
SYMATTR Value 560
SYMBOL res -3648 64 M270
WINDOW 0 32 56 VTop 2
WINDOW 3 0 56 VBottom 2
SYMATTR InstName R28
SYMATTR Value 560
SYMBOL opa681 -3248 128 R0
SYMATTR InstName U13
SYMBOL res -3120 144 R0
SYMATTR InstName RE1
SYMATTR Value 1k8
SYMBOL res -3312 80 R90
WINDOW 0 0 56 VBottom 2
WINDOW 3 32 56 VTop 2
SYMATTR InstName R30
SYMATTR Value 100
SYMBOL opa681 -3248 464 R0
SYMATTR InstName U14
SYMBOL res -3120 480 R0
SYMATTR InstName RE2
SYMATTR Value 1k8
SYMBOL res -3312 416 R90
WINDOW 0 0 56 VBottom 2
WINDOW 3 32 56 VTop 2
SYMATTR InstName R32
SYMATTR Value 100
SYMBOL res -3184 -928 R180
WINDOW 0 36 76 Left 2
WINDOW 3 36 40 Left 2
SYMATTR InstName R31
SYMATTR Value 33
SYMBOL ad8130 -3024 -944 R0
SYMATTR InstName U15
SYMBOL res -3120 -816 R90
WINDOW 0 0 56 VBottom 2
WINDOW 3 32 56 VTop 2
SYMATTR InstName R33
SYMATTR Value 470
SYMBOL res -2944 -816 R90
WINDOW 0 0 56 VBottom 2
WINDOW 3 32 56 VTop 2
SYMATTR InstName R34
SYMATTR Value 3900
SYMBOL res -2752 -960 R90
WINDOW 0 0 56 VBottom 2
WINDOW 3 32 56 VTop 2
SYMATTR InstName R37
SYMATTR Value 560
SYMBOL Opamps\\opamp2 -2688 -864 M180
SYMATTR InstName U16
SYMATTR Value LM7171
SYMBOL res -2592 -816 R90
WINDOW 0 0 56 VBottom 2
WINDOW 3 32 56 VTop 2
SYMATTR InstName R35
SYMATTR Value 560
SYMBOL res -2736 -816 R90
WINDOW 0 0 56 VBottom 2
WINDOW 3 32 56 VTop 2
SYMATTR InstName R36
SYMATTR Value 560
SYMBOL ad8130 -3200 -1536 R0
SYMATTR InstName U17
SYMBOL res -3296 -1408 R90
WINDOW 0 0 56 VBottom 2
WINDOW 3 32 56 VTop 2
SYMATTR InstName R38
SYMATTR Value 470
SYMBOL res -3120 -1408 R90
WINDOW 0 0 56 VBottom 2
WINDOW 3 32 56 VTop 2
SYMATTR InstName R39
SYMATTR Value 470
SYMBOL res -2800 -1552 R90
WINDOW 0 0 56 VBottom 2
WINDOW 3 32 56 VTop 2
SYMATTR InstName R40
SYMATTR Value 820
SYMBOL Opamps\\opamp2 -2640 -1456 M180
SYMATTR InstName U18
SYMATTR Value LM7171
SYMBOL res -2544 -1408 R90
WINDOW 0 0 56 VBottom 2
WINDOW 3 32 56 VTop 2
SYMATTR InstName R43
SYMATTR Value 560
SYMBOL cap -2944 -1600 R90
WINDOW 0 0 32 VBottom 2
WINDOW 3 32 32 VTop 2
SYMATTR InstName C11
SYMATTR Value 10p
SYMBOL polcap -3008 -1504 M90
WINDOW 0 0 32 VBottom 2
WINDOW 3 32 32 VTop 2
SYMATTR InstName C12
SYMATTR Value 10µ
SYMATTR Description Capacitor
SYMATTR Type cap
SYMATTR SpiceLine V=4 Irms=3.72678 Rser=0.018 Lser=0 mfg="KEMET" pn="A700D107M004ATE018" type="Al electrolytic"
SYMBOL res -2816 -1424 M180
WINDOW 0 36 76 Left 2
WINDOW 3 36 40 Left 2
SYMATTR InstName R41
SYMATTR Value 560
SYMBOL res -4768 -608 R90
WINDOW 0 0 56 VBottom 2
WINDOW 3 32 56 VTop 2
SYMATTR InstName R44
SYMATTR Value 100
SYMBOL cap -4768 -576 R0
SYMATTR InstName C13
SYMATTR Value 47p
SYMBOL res -4768 -448 R90
WINDOW 0 0 56 VBottom 2
WINDOW 3 32 56 VTop 2
SYMATTR InstName R45
SYMATTR Value 100
SYMBOL cap -4768 -416 R0
SYMATTR InstName C14
SYMATTR Value 47p
SYMBOL res -4768 -256 R90
WINDOW 0 0 56 VBottom 2
WINDOW 3 32 56 VTop 2
SYMATTR InstName R46
SYMATTR Value 100
SYMBOL cap -4768 -224 R0
SYMATTR InstName C15
SYMATTR Value 47p
SYMBOL vccs -3456 -992 R0
SYMATTR InstName X1
SYMBOL res -3216 -1184 R0
WINDOW 3 903 65 Left 2
SYMATTR InstName RL
TEXT -4880 -736 Left 2 ;LPC-Link2
TEXT -4688 -640 Left 2 ;LPC4370
TEXT -3448 -1216 Left 2 ;Iout
LINE Normal -4848 352 -4864 352
LINE Normal -4848 304 -4848 352
LINE Normal -4832 304 -4848 304
LINE Normal -4832 352 -4832 304
LINE Normal -4784 352 -4832 352
LINE Normal -4816 176 -4864 176
LINE Normal -4816 128 -4816 176
LINE Normal -4800 128 -4816 128
LINE Normal -4800 176 -4800 128
LINE Normal -4784 176 -4800 176
LINE Normal -4032 192 -4048 192
LINE Normal -4032 160 -4032 192
LINE Normal -4016 160 -4032 160
LINE Normal -4016 192 -4016 160
LINE Normal -4000 192 -4016 192
LINE Normal -4000 224 -4000 192
LINE Normal -3984 224 -4000 224
LINE Normal -3984 192 -3984 224
LINE Normal -3968 192 -3984 192
LINE Normal -3392 -1216 -3376 -1200
LINE Normal -3376 -1200 -3392 -1216 2
LINE Normal -3392 -1184 -3376 -1200
RECTANGLE Normal -4560 -112 -4880 -720 2
RECTANGLE Normal -4576 -208 -4688 -624 2
